tests/src/test/resources/files/cases/counter-trading/2Nodes.uct
##C 2007.05.01
Generated by powsybl, 2025-07-30T17:25:50.970193685+02:00[Europe/Paris]
Case date: 2025-07-30T17:25:50.001712601+02:00[Europe/Paris]
##N
##ZFR
FFR1AA1  FR1          0 2 400.00 0.00000 0.00000 -1000.0 0.00000 9000.00 -9000.0 9000.00 -9000.0                               F
BBE1AA1  BE1          0 2 400.00 0.00000 0.00000 1000.00 0.00000 9000.00 -9000.0 9000.00 -9000.0                               F
##L
FFR1AA1  BBE1AA1  1 0 0.0000 10.000 0.000000   600
FFR1AA1  BBE1AA1  2 0 0.0000 10.000 0.000000   600
##T
##R
